#
# ASA input
#
%sim
         model IMDHO
         method Heller
         AbsRange     10000.0,  100000.0
         NAbsPoints    2048

         FlRange      10000.0,  100000.0
         NFlPoints     2048

         MCDRange     5000.0,  100000.0
         NMCDPoints    0

         RRPRange     5000.0,  100000.0
         NRRPPoints    0

         RRSRange        0.0,    4000.0
         NRRSPoints 4000

         RRS_FWHM 10.0

         AbsScaleMode Ext
         MCDScaleMode Ext
         FlScaleMode Rel
         RamanOrder  0

         EnInput E0

         CAR   0.800

end

%heller
         IntMethod NumInt
         NumIntMethod GL
         IntConvTol      1.000000e-03
         NumIntTimeTol   1.000000e-03
         RRIntConvTol    1.000000e-03
         RRNumIntTimeTol 1.000000e-03
end

%mcd

 Model    1
 gfc 2.00230

end

%fit
         Fit false
         AbsFit false
         FlFit false
         MCDFit false
         RRPFit false
         RRSFit false
         method Simplex
         WeightsAdjust true

         AbsRange        0.0,  10000000.0
         FlRange         0.0,  10000000.0
         MCDRange        0.0,  10000000.0
         RRPRange        0.0,  10000000.0
         RRSRange        0.0,  10000000.0
         AbsName ""
         FlName  ""

         ExpAbsScaleMode Rel
         ExpFlScaleMode Rel

         CWAR  -1.000
         CWAF  -1.000
         CWAM  -1.000

         NMaxFunc 100
         MWADRelTol= 1.000000e-04

         SFRRPSimStep= 1.000000e+02
         SFRRSSimStep 1.000000e+02
         FREQGStep 1.000000e+01
         FREQEStep 1.000000e+01
         E0Step 3.000000e+02
         SSStep 2.000000e+01
         TMStep 5.000000e-01
         CODStep 1.000000e-01
         GammaStep 5.000000e+01
         E0SDStep 5.000000e+01
         SDNCStep 4.000000e-01
end

$el_states
10
   1 38177.69   100.00    0.00     1.7409  -0.2202  -0.1207
   2 39721.13   100.00    0.00     0.1300  -0.0066   0.0032
   3 38762.39   100.00    0.00    -0.8302   0.0731   0.0975
   4 48312.80   100.00    0.00     0.1298   0.6914   0.7638
   5 48711.11   100.00    0.00     0.0347  -0.2394  -0.2036
   6 47161.04   100.00    0.00     0.2094   0.1410   0.0562
   7 46234.57   100.00    0.00    -0.0222  -0.0649   0.0819
   8 51791.70   100.00    0.00     1.0601  -0.1263  -0.1053
   9 51792.60   100.00    0.00     0.1082  -0.2713   0.1199
  10 56486.96   100.00    0.00     1.6645  -0.1963  -0.0636


$vib_freq_gs
64
    1       59.504970
    2       61.415593
    3      156.182113
    4      169.188062
    5      225.636460
    6      258.763506
    7      271.413548
    8      296.914968
    9      339.893302
   10      367.311366
   11      396.523278
   12      410.192482
   13      484.754007
   14      506.579897
   15      531.382779
   16      588.200182
   17      598.623100
   18      636.856820
   19      678.171858
   20      708.274778
   21      780.694275
   22      828.769641
   23      859.093135
   24      932.543545
   25      938.621065
   26      939.370511
   27      969.986129
   28      984.329834
   29      986.838265
   30     1015.942185
   31     1021.351222
   32     1059.858047
   33     1106.565410
   34     1133.382983
   35     1180.322504
   36     1197.593876
   37     1203.062975
   38     1213.985147
   39     1305.080795
   40     1330.036550
   41     1363.194817
   42     1365.077791
   43     1388.230382
   44     1406.728259
   45     1467.692621
   46     1470.954512
   47     1482.306637
   48     1486.776997
   49     1496.236807
   50     1535.319044
   51     1635.233472
   52     1667.139412
   53     2340.271357
   54     3052.571235
   55     3064.283614
   56     3133.504903
   57     3141.305636
   58     3147.907237
   59     3158.052968
   60     3187.968501
   61     3207.247618
   62     3214.492153
   63     3218.995608
   64     3849.519084


$sdnc
64 10
                  1          2          3          4          5          6    
      1      -0.147995   0.045848  -0.433994  -0.037966  -0.590488  -0.508950
      2      -0.535686  -0.011602   0.136690  -0.246530   0.446364  -0.124441
      3      -0.344297  -0.086709   0.141059  -0.210689   0.080288   0.539640
      4       0.161548  -0.101974   0.283774  -0.002150   0.297555  -0.420453
      5       0.280959  -0.006902   0.022211   0.136951   0.038656   0.960915
      6       0.251799   0.000347  -0.262928  -0.116943   0.363366   0.946530
      7       0.353535  -0.019510  -0.018543   0.194681  -0.055875   1.111797
      8      -0.252261   0.090059   0.283205  -0.200918   0.188379  -2.654248
      9       0.218179  -0.043830  -0.345355   0.109185  -0.240538   1.047261
     10      -0.046112   0.000516   0.056334   0.000105  -0.048661   0.227463
     11      -0.179704  -0.045431  -0.195547  -0.101824  -0.017476   0.372166
     12      -0.453713  -0.019214   0.522210  -0.098906   0.197466  -0.000000
     13      -0.270314  -0.033321  -0.039830   0.099215  -0.305239  -0.309482
     14      -0.148146  -0.026913  -0.126512   0.032920  -0.240777  -0.575280
     15      -0.195592  -0.005441   0.203917   0.034625   0.069421   0.295309
     16       0.058116  -0.032971   0.331287   0.029643   0.254160   0.736201
     17      -0.208674   0.029161   0.061162   0.008086  -0.051939   0.207446
     18      -0.000055  -0.045466  -0.049284   0.001701   0.003714  -0.147144
     19       0.237219   0.218711   0.227329  -0.027177   0.567072   0.123910
     20       0.008354  -0.002360   0.001786   0.007251  -0.013151  -0.021242
     21      -0.017084   0.026126  -0.001038  -0.000610   0.115585  -0.113688
     22      -0.022020  -0.308900   0.036545  -0.091936  -0.223511   0.019179
     23       0.011423   0.007446  -0.073985   0.039106  -0.090702  -0.001820
     24      -0.329529  -0.310369  -0.137748  -0.266395  -0.220153  -0.057667
     25       0.016957   0.018848   0.009185   0.019346   0.002312   0.036415
     26       0.172973   0.146181   0.084687   0.136160   0.091432   0.040776
     27      -0.017123  -0.005703   0.030147  -0.048512   0.041940   0.017982
     28      -0.207040  -0.177805  -0.068211  -0.207425  -0.217226  -0.133567
     29      -0.002498   0.018733   0.004298   0.002536   0.079064  -0.036981
     30       0.122820   0.127620  -0.221389   0.134422  -0.065489   0.185882
     31       0.623137   0.780167   0.683789   0.726469   0.732191   0.565712
     32      -0.070420  -0.464054   0.051741  -0.390066  -0.264580  -0.188394
     33      -0.002651   0.007433  -0.002804   0.005202   0.017187  -0.026237
     34      -0.070886  -0.092183   0.053086  -0.070393   0.069909   0.296440
     35      -0.008450   0.011012   0.001895   0.002043   0.017712  -0.017145
     36       0.574245   0.072300   0.563235  -0.082162  -0.219605   0.665991
     37      -0.190903   0.081003  -0.165532   0.061350   0.051729   0.365124
     38       0.123326   0.405109  -0.007311   0.372599   0.234018   0.736633
     39      -0.321409  -0.547288  -0.298338  -0.420637  -0.174027   0.149987
     40       0.001388  -0.018806  -0.014439  -0.009695  -0.025201   0.013335
     41      -0.001282   0.000092  -0.003198  -0.001182  -0.005175   0.002677
     42      -0.049875  -0.181176  -0.199193  -0.128761  -0.231160   0.004221
     43       0.019143   0.041467   0.119984   0.042040   0.178351   0.291619
     44       0.107689  -0.000343  -0.007644   0.063017   0.019662   0.103510
     45       0.009023   0.005144  -0.003089   0.006014  -0.010763  -0.032933
     46       0.000828   0.000837  -0.036840   0.003203  -0.009023   0.074142
     47       0.003543  -0.003171  -0.004202  -0.000612  -0.010148   0.006679
     48      -0.011936   0.012507   0.011362   0.003871   0.029024  -0.021854
     49       0.025525  -0.019405  -0.015452  -0.015521  -0.045460   0.145375
     50       0.264723   0.236132   0.284303   0.182539   0.136907   0.101973
     51      -0.026199   0.026934   0.005298   0.005636   0.055194  -0.049670
     52      -0.805813   0.157619  -0.705484   0.384607   0.726087  -0.316960
     53       1.033679   0.368987   1.315860   0.622307   0.775866   0.534138
     54       0.009687   0.001563   0.002544   0.008126   0.011549   0.029638
     55      -0.001103  -0.000147   0.000880  -0.003397  -0.012810  -0.005906
     56      -0.000590  -0.000281   0.006920  -0.001073   0.004550   0.009729
     57       0.006354   0.002145   0.000903   0.004372  -0.002487   0.002005
     58       0.011464   0.001631   0.002827   0.006897   0.000835   0.030245
     59      -0.002689   0.000209  -0.001706  -0.001061  -0.003123  -0.014763
     60      -0.019468   0.009929  -0.032673   0.007161   0.026796  -0.016581
     61      -0.002585   0.015754   0.000085   0.004682   0.042827  -0.001814
     62      -0.004439  -0.005544  -0.001739  -0.005282  -0.004176  -0.001441
     63       0.031826   0.090454   0.026813   0.062934   0.070277   0.030563
     64      -0.011549  -0.003976  -0.024377  -0.010119  -0.040475  -0.140299
                   7          8          9         10    
      1       0.266642  -0.073258  -0.961070   0.061281
      2      -0.285918  -0.404145   0.340624  -0.998373
      3      -0.010883  -0.552062  -0.534319   0.011963
      4       1.565413  -0.383048  -1.998049   0.158493
      5      -0.316998   0.099191  -0.475393   0.047725
      6      -1.198544  -0.397603   0.766615  -0.549083
      7       0.342979   0.333021  -1.099919   0.327703
      8      -0.290556  -0.634788   1.440727  -0.268965
      9       0.350397   0.577584  -0.664787  -0.054087
     10      -0.432617   0.050999  -0.022875   0.252543
     11       0.666360  -0.037409   0.002586   0.079240
     12      -0.291639   0.134396  -0.037509  -0.012301
     13      -0.071539   0.243884   0.124460   0.146689
     14       0.000693   0.028781   0.509784  -0.009248
     15      -0.179019   0.082546   0.061222   0.066311
     16      -0.937234   0.329465   0.424408  -0.151962
     17       0.681610   0.020245  -0.239773  -0.175004
     18       0.353354  -0.064682  -0.195431  -0.024449
     19       0.649320   0.026069   0.411834   0.335504
     20       0.000562   0.011924   0.007779   0.081688
     21      -0.001259  -0.044761  -0.019835  -0.004394
     22      -0.093909  -0.163910  -0.347568  -0.295650
     23       0.100847  -0.022583  -0.006613   0.023129
     24      -0.238425  -0.240632   0.033782  -0.369058
     25       0.009708  -0.018183   0.031944   0.038616
     26       0.055906   0.082370  -0.070939   0.172465
     27      -0.015059   0.000370  -0.001522   0.012223
     28       0.161674  -0.138929  -0.039752  -0.124742
     29      -0.007868  -0.004493   0.012510  -0.060284
     30       0.484524   0.122125   0.122776   0.079632
     31      -0.000458   0.615817   0.234327   0.678298
     32      -0.053028  -0.394617  -0.092697  -0.409599
     33       0.036349  -0.005615  -0.012541   0.003654
     34      -0.231022   0.041726  -0.023775  -0.035702
     35       0.004018  -0.002770  -0.006692   0.005569
     36       0.273929  -0.106264   0.078410   0.216149
     37       0.171097   0.214313  -0.138951   0.017683
     38       0.252158   0.475599  -0.212478   0.092883
     39      -0.052458  -0.306065  -0.286754  -0.100646
     40       0.008080  -0.008262  -0.028500  -0.002387
     41       0.015788  -0.003869  -0.007963   0.005037
     42      -0.030018  -0.088484  -0.189837   0.001766
     43      -0.064759   0.098028   0.133402   0.000506
     44       0.033374   0.018348   0.179772   0.023398
     45       0.021916  -0.013898  -0.001952   0.000580
     46       0.077319   0.006959   0.007603  -0.001675
     47       0.009973  -0.001297  -0.011900  -0.002914
     48      -0.074646  -0.006085  -0.007351  -0.011719
     49       0.083184   0.019514  -0.058014   0.013974
     50       0.201061   0.112368   0.200188  -0.049277
     51      -0.019847  -0.000637   0.008010   0.004208
     52      -0.464905   0.559551  -0.419613  -0.209467
     53       1.730048   0.433212   0.505383   0.516325
     54      -0.037498   0.000428  -0.099520   0.001137
     55       0.019454   0.010151   0.074563   0.015691
     56       0.021137   0.007743   0.008994   0.002636
     57      -0.027253   0.000361   0.018563   0.004535
     58       0.026539   0.009694  -0.073003   0.019482
     59       0.013964   0.001288   0.032327  -0.003239
     60      -0.009657   0.004455   0.015319  -0.004772
     61       0.016514   0.011999  -0.017349   0.000063
     62      -0.003774  -0.004096   0.015377   0.002412
     63       0.011218   0.064847  -0.022234   0.002584
     64       0.003571  -0.055096  -0.314754  -0.018005


