#
# ASA input
#
%sim
         model IMDHO
         method Heller
         AbsRange     10000.0,  100000.0
         NAbsPoints    2048

         FlRange      10000.0,  100000.0
         NFlPoints     2048

         MCDRange     5000.0,  100000.0
         NMCDPoints    0

         RRPRange     5000.0,  100000.0
         NRRPPoints    0

         RRSRange        0.0,    4000.0
         NRRSPoints 4000

         RRS_FWHM 10.0

         AbsScaleMode Ext
         MCDScaleMode Ext
         FlScaleMode Rel
         RamanOrder  0

         EnInput E0

         CAR   0.800

end

%heller
         IntMethod NumInt
         NumIntMethod GL
         IntConvTol      1.000000e-03
         NumIntTimeTol   1.000000e-03
         RRIntConvTol    1.000000e-03
         RRNumIntTimeTol 1.000000e-03
end

%mcd

 Model    1
 gfc 2.00230

end

%fit
         Fit false
         AbsFit false
         FlFit false
         MCDFit false
         RRPFit false
         RRSFit false
         method Simplex
         WeightsAdjust true

         AbsRange        0.0,  10000000.0
         FlRange         0.0,  10000000.0
         MCDRange        0.0,  10000000.0
         RRPRange        0.0,  10000000.0
         RRSRange        0.0,  10000000.0
         AbsName ""
         FlName  ""

         ExpAbsScaleMode Rel
         ExpFlScaleMode Rel

         CWAR  -1.000
         CWAF  -1.000
         CWAM  -1.000

         NMaxFunc 100
         MWADRelTol= 1.000000e-04

         SFRRPSimStep= 1.000000e+02
         SFRRSSimStep 1.000000e+02
         FREQGStep 1.000000e+01
         FREQEStep 1.000000e+01
         E0Step 3.000000e+02
         SSStep 2.000000e+01
         TMStep 5.000000e-01
         CODStep 1.000000e-01
         GammaStep 5.000000e+01
         E0SDStep 5.000000e+01
         SDNCStep 4.000000e-01
end

$el_states
10
   1 28704.11   100.00    0.00    -0.1403  -0.2451  -0.0318
   2 31640.29   100.00    0.00    -0.9469  -1.6641  -0.0904
   3 33630.43   100.00    0.00    -0.0916  -0.1443  -0.0339
   4 38161.86   100.00    0.00    -0.0541   0.0309   0.0581
   5 44327.95   100.00    0.00     1.1948   1.8219   0.1184
   6 44180.30   100.00    0.00    -0.3823   0.4081   0.4743
   7 44155.92   100.00    0.00    -0.3044   0.2086   0.3906
   8 44756.59   100.00    0.00    -0.3166  -0.5282  -0.0267
   9 46672.27   100.00    0.00     0.0458   0.1224  -0.0347
  10 48050.55   100.00    0.00    -0.0250  -0.0948   0.0399


$vib_freq_gs
51
    1       43.606508
    2       50.203856
    3      110.963750
    4      146.848471
    5      207.478850
    6      279.209765
    7      313.099490
    8      328.089975
    9      372.880979
   10      408.129465
   11      478.239042
   12      489.673525
   13      553.128613
   14      561.757920
   15      574.816575
   16      634.625404
   17      677.853363
   18      706.317860
   19      780.591660
   20      842.622185
   21      858.438410
   22      940.725873
   23      972.494229
   24      978.256379
   25      990.751475
   26     1020.286033
   27     1056.712058
   28     1069.972876
   29     1107.826900
   30     1139.768224
   31     1181.435036
   32     1201.215835
   33     1214.718413
   34     1329.902898
   35     1344.313949
   36     1360.556897
   37     1364.146496
   38     1414.756339
   39     1477.829802
   40     1481.698602
   41     1536.015492
   42     1632.610094
   43     1664.420953
   44     2264.370139
   45     2358.680844
   46     3004.360628
   47     3085.895623
   48     3190.062743
   49     3209.255697
   50     3220.900701
   51     3857.373485


$sdnc
51 10
                  1          2          3          4          5          6    
      1      -0.363800   0.017269   0.171872   0.006691  -0.162731  -0.321024
      2      -0.349530  -0.464750   0.826217   0.051847   0.406880   1.235454
      3       0.510399   0.065454  -0.208049   0.013254   0.290688   0.140875
      4      -0.070647   0.087269  -0.332656   0.001944  -0.313577  -0.116863
      5       0.284958   0.028643  -0.136218   0.029543   0.159482   0.124120
      6       0.448511  -0.068513  -0.185817  -0.000966   0.344322  -0.006257
      7      -0.210094  -0.146122   0.274403   0.100738   0.284796  -0.227720
      8      -0.087481   0.049225   0.071272  -0.071831  -0.252977   0.150443
      9       0.323688   0.089897  -0.254948  -0.041702   0.019515   0.114614
     10      -0.113941   0.111340   0.007253  -0.011584  -0.072970  -0.215087
     11      -0.201327  -0.014897   0.123910   0.033641  -0.039609  -0.085111
     12       0.234519   0.058620  -0.156503  -0.035620   0.040250   0.096988
     13       0.226672   0.072462  -0.086641  -0.060721   0.099441   0.117392
     14      -0.034300  -0.003111   0.114016   0.009967   0.030013  -0.039304
     15      -0.129307  -0.064667   0.064139   0.047698  -0.085581  -0.067332
     16       0.001575  -0.002381  -0.025648  -0.001190  -0.057789   0.059154
     17       0.500373  -0.048034  -0.440269   0.077809  -0.295406  -0.026260
     18       0.002617   0.000057  -0.001382   0.000941  -0.003708   0.006299
     19       0.001777  -0.002331  -0.001066  -0.000902   0.009529  -0.010495
     20      -0.279709  -0.107674   0.041853  -0.295191  -0.352643  -0.396463
     21       0.022961   0.004771  -0.028231  -0.001720  -0.019732  -0.065265
     22      -0.001001   0.000792   0.000463  -0.001096   0.001911  -0.005535
     23       0.001350   0.007107  -0.006561   0.000267   0.001819  -0.053943
     24      -0.149237  -0.080523   0.079526  -0.076677  -0.074799  -0.010257
     25       0.000270  -0.000051   0.000105   0.000467  -0.006421   0.007348
     26      -0.373792  -0.325342  -0.020489  -0.719071  -0.422749  -0.626758
     27       0.048026  -0.114685  -0.174068  -0.534547  -0.266027  -0.394608
     28       0.101309   0.252383   0.283560   0.088034   0.035688  -0.014300
     29      -0.002693  -0.001163   0.005815  -0.001467   0.019412  -0.017465
     30       0.216418   0.357016   0.426636   0.505495   0.193334   0.276230
     31       0.000695  -0.000959  -0.001120   0.000411  -0.033936   0.028279
     32      -0.282913  -0.248194  -0.038707   0.217466  -0.293080   0.394529
     33      -0.073863  -0.094206   0.105324  -0.022212   0.044141   0.034488
     34      -0.008674  -0.003506   0.014459  -0.014950  -0.038347   0.021167
     35      -0.135193  -0.032423   0.298003  -0.252979   0.082564  -0.172475
     36      -0.034785  -0.073267   0.026167  -0.426484  -0.077033  -0.257708
     37      -0.005481  -0.010131   0.002398  -0.051674   0.001371  -0.040974
     38      -0.007039  -0.067813  -0.067463  -0.120965  -0.068974  -0.012576
     39       0.129361   0.000530   0.072780  -0.001001   0.122053   0.054856
     40      -0.005065  -0.003337   0.003505  -0.000118  -0.023710   0.017324
     41      -0.185796  -0.219757  -0.122009  -0.288145  -0.027984  -0.151847
     42      -0.004316  -0.004702   0.001476   0.003808  -0.103025   0.087673
     43      -0.390998  -0.495720  -0.327268   0.211646  -0.526073   0.672956
     44      -0.254312  -0.337651  -0.328168  -0.246048   0.093229  -0.196133
     45      -1.585002  -1.320410  -1.636287  -0.421404  -0.818364  -0.778314
     46       0.039085   0.003192   0.051712  -0.002143   0.068288   0.009945
     47      -0.020146  -0.012324  -0.020540  -0.002706  -0.022155  -0.020847
     48       0.020039   0.010964   0.000810  -0.004159   0.007224  -0.026274
     49      -0.000953  -0.002045  -0.007676  -0.008933   0.007955  -0.021681
     50      -0.011219  -0.013979  -0.008242  -0.083689  -0.030972  -0.068437
     51      -0.004714  -0.010406   0.000117  -0.001449  -0.003039  -0.004885
                   7          8          9         10    
      1       0.058175   0.120296  -0.686518  -0.639116
      2      -1.836850   0.239764  -1.099420  -2.249299
      3       0.138346  -0.345918   0.962845   1.095173
      4       0.300993  -0.295807  -0.025762   0.430793
      5       0.010515  -0.652642   0.511466   0.767386
      6      -0.175243   2.001179   1.313548   0.239131
      7      -0.439386  -0.705073  -0.165046   0.051227
      8       0.407813  -1.820444  -1.082660  -0.447922
      9       0.193762   0.543968   0.631033   0.395062
     10       0.261030  -0.068593   0.059533   0.162886
     11      -0.143670   0.203443  -0.155777  -0.034968
     12       0.116128   0.143462   0.416634   0.301929
     13       0.181666  -0.066705   0.222053   0.083741
     14      -0.036736  -0.048600  -0.047592  -0.092494
     15      -0.156231   0.011699  -0.097258  -0.041382
     16       0.030191  -0.000583  -0.004807   0.013050
     17      -0.275356  -0.123458  -0.013470  -0.186329
     18      -0.002625  -0.004333   0.006066   0.002258
     19       0.000051  -0.002997  -0.004065  -0.005647
     20      -0.424396  -0.100474  -0.367541  -0.260299
     21       0.090088  -0.018832   0.100279   0.010510
     22       0.002018   0.001232  -0.001101   0.002151
     23       0.058299   0.015379  -0.035654   0.034685
     24      -0.125858  -0.487348  -0.362999  -0.263296
     25      -0.002742  -0.003691  -0.001741  -0.001957
     26      -0.662438  -0.357701  -0.416096  -0.416552
     27      -0.352430  -0.203849  -0.206083  -0.202000
     28      -0.097872   0.256227   0.091996   0.120531
     29      -0.002546  -0.001078  -0.001602  -0.003992
     30       0.266364   0.101288  -0.003153  -0.087312
     31       0.002043  -0.000235   0.000006   0.002712
     32       0.420930  -0.322106  -0.384601  -0.384204
     33      -0.152031  -0.177996  -0.110966  -0.248720
     34      -0.008867   0.002279  -0.000559   0.001060
     35      -0.204026   0.423033   0.162366   0.067019
     36      -0.183784  -0.279517  -0.157020   0.018338
     37      -0.026912  -0.026813  -0.016563   0.001814
     38       0.047041  -0.480104  -0.248881  -0.172003
     39       0.032052   0.019713   0.002701  -0.012240
     40      -0.003115  -0.000153  -0.000427  -0.001720
     41      -0.121458  -0.132366  -0.043933   0.044337
     42       0.009496  -0.000856  -0.001448   0.002048
     43       0.812730  -0.529217  -0.563800  -0.420225
     44      -0.205608  -0.078016   0.038353   0.216649
     45      -0.812486  -0.825735  -0.828883  -0.917387
     46       0.021090   0.076415   0.079655   0.045290
     47       0.004591   0.006089  -0.008008  -0.024997
     48      -0.036217   0.018110   0.018082   0.016856
     49      -0.033762   0.009629   0.014240   0.018438
     50      -0.075008  -0.014719  -0.024322  -0.018281
     51      -0.013402  -0.129232  -0.084990  -0.082438


