#
# ASA input
#
%sim
         model IMDHO
         method Heller
         AbsRange     10000.0,  100000.0
         NAbsPoints    2048

         FlRange      10000.0,  100000.0
         NFlPoints     2048

         MCDRange     5000.0,  100000.0
         NMCDPoints    0

         RRPRange     5000.0,  100000.0
         NRRPPoints    0

         RRSRange        0.0,    4000.0
         NRRSPoints 4000

         RRS_FWHM 10.0

         AbsScaleMode Ext
         MCDScaleMode Ext
         FlScaleMode Rel
         RamanOrder  0

         EnInput E0

         CAR   0.800

end

%heller
         IntMethod NumInt
         NumIntMethod GL
         IntConvTol      1.000000e-03
         NumIntTimeTol   1.000000e-03
         RRIntConvTol    1.000000e-03
         RRNumIntTimeTol 1.000000e-03
end

%mcd

 Model    1
 gfc 2.00230

end

%fit
         Fit false
         AbsFit false
         FlFit false
         MCDFit false
         RRPFit false
         RRSFit false
         method Simplex
         WeightsAdjust true

         AbsRange        0.0,  10000000.0
         FlRange         0.0,  10000000.0
         MCDRange        0.0,  10000000.0
         RRPRange        0.0,  10000000.0
         RRSRange        0.0,  10000000.0
         AbsName ""
         FlName  ""

         ExpAbsScaleMode Rel
         ExpFlScaleMode Rel

         CWAR  -1.000
         CWAF  -1.000
         CWAM  -1.000

         NMaxFunc 100
         MWADRelTol= 1.000000e-04

         SFRRPSimStep= 1.000000e+02
         SFRRSSimStep 1.000000e+02
         FREQGStep 1.000000e+01
         FREQEStep 1.000000e+01
         E0Step 3.000000e+02
         SSStep 2.000000e+01
         TMStep 5.000000e-01
         CODStep 1.000000e-01
         GammaStep 5.000000e+01
         E0SDStep 5.000000e+01
         SDNCStep 4.000000e-01
end

$el_states
10
   1 24861.37   100.00    0.00    -0.0057  -0.0037   0.0006
   2 26315.41   100.00    0.00    -1.0682  -0.6161   0.9341
   3 26030.90   100.00    0.00     0.0190   0.0078   0.0079
   4 37103.28   100.00    0.00    -0.0334  -0.0072  -0.0276
   5 38833.11   100.00    0.00    -2.3982  -1.3310   2.0127
   6 41272.49   100.00    0.00     0.0452   0.0083   0.0495
   7 41545.58   100.00    0.00     0.2669   0.1382  -0.2159
   8 42083.90   100.00    0.00    -0.4680  -0.0671  -0.5398
   9 41609.25   100.00    0.00    -0.0300  -0.0605   0.0444
  10 42302.64   100.00    0.00    -0.0034   0.0025  -0.0041


$vib_freq_gs
44
    1       66.163682
    2       71.991019
    3      151.314792
    4      197.593995
    5      225.700149
    6      291.086082
    7      370.767982
    8      383.327616
    9      423.310892
   10      470.965008
   11      494.149970
   12      521.462462
   13      529.438259
   14      542.011198
   15      618.767903
   16      644.957574
   17      673.629112
   18      676.765990
   19      758.945941
   20      766.878396
   21      830.145650
   22      865.480543
   23      891.933011
   24      991.804850
   25     1044.597244
   26     1179.828324
   27     1182.591281
   28     1188.139924
   29     1335.048010
   30     1372.432854
   31     1386.578651
   32     1446.204038
   33     1625.731832
   34     1632.048214
   35     2281.377868
   36     2361.626788
   37     2418.966168
   38     4137.965324
   39     4300.935903
   40     4631.954611
   41     4641.049122
   42     4648.648565
   43     4652.110419
   44     4659.222586


$sdnc
44 10
                  1          2          3          4          5          6    
      1      -0.530304  -0.131814   0.198237  -0.094024  -0.258509  -0.116714
      2       0.572105   0.729828   1.135672   0.536006   0.644444   0.900964
      3       0.110561  -0.084856  -0.291020  -0.071647  -0.076857  -0.064294
      4      -0.006864   0.090167   0.174291   0.074476   0.063768   0.096597
      5      -0.071544   0.038301   0.146729   0.009807  -0.000082   0.039769
      6       0.273304   0.181959   0.094523  -0.048110  -0.348497  -0.615992
      7       0.635717   0.444608   0.170530   0.237169   0.167584  -0.135849
      8       0.058382   0.062715   0.064066   0.028529  -0.026736  -0.102268
      9      -0.030993  -0.010629  -0.000805   0.014399  -0.015126   0.030678
     10       0.042689  -0.010897  -0.082730  -0.024977  -0.032890  -0.009393
     11       0.023364   0.060843   0.175640   0.003033   0.038487   0.095383
     12       0.006382   0.005441   0.001639   0.000280   0.006162   0.002463
     13       0.035694   0.001137  -0.049059   0.009967   0.001072  -0.023996
     14      -0.043509   0.005326   0.111299  -0.007221   0.021480   0.037484
     15       0.012221   0.011132   0.016422   0.012520  -0.015383  -0.040027
     16      -0.080534  -0.087350  -0.164626  -0.177115   0.058627   0.138791
     17       0.360180   0.006626  -0.383306  -0.003723   0.014216   0.060147
     18       0.063007   0.029845   0.013993   0.005751   0.035653   0.055534
     19      -0.008997  -0.000184   0.022410  -0.015364  -0.005965   0.005728
     20      -0.011719  -0.014886  -0.019341  -0.029961  -0.031062  -0.048675
     21      -0.006407  -0.001329   0.011567   0.000406  -0.003128   0.003687
     22      -0.069257  -0.034550  -0.058551  -0.042564   0.305164   0.180917
     23       0.126912   0.157387   0.214354   0.060572   0.180677   0.227279
     24      -0.286070  -0.319848  -0.369895  -0.445336  -0.253013  -0.097170
     25       0.234349   0.186988   0.056989   0.717025   0.389611   0.234148
     26      -0.012880  -0.058403  -0.058024  -0.039307  -0.004013  -0.044002
     27       0.043559  -0.038472  -0.038129  -0.006555   0.057067  -0.010105
     28      -0.010275   0.023508  -0.040426   0.698440   0.156015   0.053382
     29      -0.061393  -0.058345  -0.036856   0.111874   0.061131   0.133150
     30      -0.006656  -0.006947  -0.004211  -0.003397  -0.021634  -0.010327
     31       0.009578   0.014132   0.019887  -0.000096   0.029228   0.035619
     32       0.201603   0.209075   0.137421   0.435382   0.282662   0.296520
     33       0.260867   0.274692   0.208370  -0.267744   0.542331   0.397520
     34       0.174021   0.180537   0.129036  -0.179674   0.347378   0.239186
     35       0.185924   0.161632   0.247352  -0.105020   0.022948  -0.133944
     36      -1.428018  -1.337926  -1.430695  -0.516594  -0.612588  -0.687881
     37       0.647620   0.601878   0.712702   0.060317   0.498607   0.693949
     38       0.011670   0.012805   0.014791   0.001360   0.019235   0.023090
     39       0.006456  -0.002521   0.001956   0.000365   0.013038   0.001124
     40       0.006430   0.002741  -0.001256  -0.008008   0.002876   0.004835
     41       0.003897   0.002207   0.000021   0.003362   0.005500   0.005050
     42       0.003080   0.002143   0.001611   0.003259  -0.001494   0.001195
     43      -0.005370  -0.004584  -0.003164  -0.028192  -0.008860  -0.007149
     44       0.006923   0.006071   0.004631   0.037997   0.010946   0.009384
                   7          8          9         10    
      1       0.063256   0.026740  -0.268317  -0.067083
      2       0.618096   0.566021   0.222847   1.019890
      3      -0.160372  -0.117834   0.193871  -0.177448
      4       0.096246   0.069068  -0.032787   0.121946
      5       0.060404  -0.018654  -0.150563   0.005829
      6      -0.285642  -0.008860   0.436596  -0.609610
      7       0.185789   0.060523   0.248933  -0.191292
      8      -0.026791   0.053764   0.059025  -0.068192
      9       0.010493   0.019635  -0.003530   0.033659
     10      -0.038262  -0.014433   0.015187  -0.024223
     11       0.010365   0.007484  -0.059194   0.125370
     12       0.004790  -0.001652   0.010014   0.001108
     13      -0.003194   0.008531   0.057153  -0.036132
     14      -0.028636  -0.010333  -0.097895   0.053089
     15      -0.024869   0.046220  -0.045899  -0.006529
     16       0.057271  -0.320973  -0.148797   0.085113
     17       0.013628  -0.015121   0.251403  -0.008528
     18       0.026126   0.000880   0.034590   0.051454
     19      -0.019291   0.000113  -0.028418   0.003083
     20      -0.035236  -0.013603  -0.074461  -0.021474
     21      -0.002614  -0.007264  -0.015538   0.007090
     22       0.352075  -0.193708   0.374040   0.210169
     23       0.166628   0.075470  -0.036972   0.236336
     24      -0.283625  -0.362611  -0.358640  -0.131628
     25       0.444448   0.577713   0.728577   0.236541
     26      -0.085144  -0.055434   0.005008  -0.047430
     27      -0.085472  -0.031006   0.067142  -0.018264
     28       0.191390   0.487402   0.326173   0.046882
     29       0.051994   0.134402   0.135053   0.119206
     30      -0.032238   0.010828   0.018526  -0.010756
     31       0.024528  -0.012389  -0.035661   0.028540
     32       0.234185   0.235935   0.080708   0.252564
     33       0.632123  -0.552504  -0.854506   0.395262
     34       0.429555  -0.366114  -0.596901   0.291499
     35       0.017217   0.015270   0.035894  -0.050542
     36      -0.714346  -0.726180  -0.772822  -0.672052
     37       0.511737   0.253149   0.320905   0.694623
     38       0.017626   0.005857   0.005651   0.023478
     39      -0.010800  -0.002952   0.010174  -0.000057
     40       0.007636  -0.010651  -0.029567   0.005279
     41       0.008883   0.001572  -0.011685   0.003691
     42      -0.004390   0.001684   0.017133  -0.000152
     43      -0.012967  -0.020898  -0.029438  -0.008598
     44       0.014194   0.029087   0.045963   0.009330


